Questionable use of curly braces in ".model sir870adp vdmos(rg=3 vto=2.9 rd=3.2m rs=1.5m rb={m} kp=100 mtriode=1.85 cgdmax=1.4n cgdmin=70p cgs=2.9n cjo=3.6n m=.4 a=.7 vj=.7 lambda=20m is=3p ksubthres=.08 mfg=siliconix vds=100 ron=5.5m qg=53.5n)"
    Error: undefined symbol in: "[m]"
Circuit: * C:\Users\franco\Desktop\Valvulas\Esquemáticos valvulares LTSPice\Hibrido\Hibridov1.asc

Warning: Multiple definitions of model "mv2201" Type: Diode
Warning: Multiple definitions of model "mur460" Type: Diode
Warning: Multiple definitions of model "w5ap-lzmz-5k8l" Type: Diode
Warning: Multiple definitions of model "1n5369b" Type: Diode
Warning: Multiple definitions of model "1n5371b" Type: Diode
Warning: Multiple definitions of model "1n5375b" Type: Diode
Warning: Multiple definitions of model "1n5378b" Type: Diode
Warning: Multiple definitions of model "1n5373b" Type: Diode
Warning: Multiple definitions of model "pt-121-b" Type: Diode
Warning: Multiple definitions of model "ss24" Type: Diode
Warning: Multiple definitions of model "es1d" Type: Diode
Warning: Multiple definitions of model "pds5100" Type: Diode
Warning: Multiple definitions of model "zlls2000" Type: Diode
Warning: Multiple definitions of model "zlls1000" Type: Diode
Warning: Multiple definitions of model "10mq060n" Type: Diode
Warning: Multiple definitions of model "b560c" Type: Diode
Warning: Multiple definitions of model "b550c" Type: Diode
Warning: Multiple definitions of model "b540c" Type: Diode
Warning: Multiple definitions of model "b530c" Type: Diode
Warning: Multiple definitions of model "b520c" Type: Diode
Warning: Multiple definitions of model "pds760" Type: Diode
Warning: Multiple definitions of model "dflz33" Type: Diode
Warning: Multiple definitions of model "gsd2004w-v" Type: Diode
Warning: Multiple definitions of model "prll5817" Type: Diode
Warning: Multiple definitions of model "pmeg6010aed" Type: Diode
Warning: Multiple definitions of model "pmeg2005eb" Type: Diode
Warning: Multiple definitions of model "pmeg2010aeb" Type: Diode
Warning: Multiple definitions of model "pmeg4005aea" Type: Diode
Warning: Multiple definitions of model "pmeg3005aea" Type: Diode
Warning: Multiple definitions of model "pmeg2005aea" Type: Diode
Warning: Multiple definitions of model "pmeg4010bea" Type: Diode
Warning: Multiple definitions of model "pmeg3010bea" Type: Diode
Warning: Multiple definitions of model "pmeg2010bea" Type: Diode
Warning: Multiple definitions of model "pmeg2010ea" Type: Diode
Warning: Multiple definitions of model "pmeg2020aea" Type: Diode
Warning: Multiple definitions of model "nssws108t" Type: Diode
Warning: Multiple definitions of model "nssw008ct-p1" Type: Diode
Warning: Multiple definitions of model "aot-2015" Type: Diode
Warning: Multiple definitions of model "lxk2-pw14" Type: Diode
Warning: Multiple definitions of model "lxhl-bw02" Type: Diode
Warning: Multiple definitions of model "qtlp690c" Type: Diode
Warning: Multiple definitions of model "nscw100" Type: Diode
Warning: Multiple definitions of model "nspw500bs" Type: Diode
Warning: Multiple definitions of model "upsc600" Type: Diode
Warning: Multiple definitions of model "30bq060" Type: Diode
Warning: Multiple definitions of model "mbr20100ct" Type: Diode
Warning: Multiple definitions of model "mbrb2545ct" Type: Diode
Warning: Multiple definitions of model "mur460" Type: Diode
Warning: Multiple definitions of model "mbr0540" Type: Diode
Warning: Multiple definitions of model "mv2201" Type: Diode
Warning: Multiple definitions of model "1n750" Type: Diode
Warning: Multiple definitions of model "rb10l-40" Type: Diode
Warning: Multiple definitions of model "bzx84c15l" Type: Diode
Warning: Multiple definitions of model "bzx84c12l" Type: Diode
Warning: Multiple definitions of model "bzx84c10l" Type: Diode
Warning: Multiple definitions of model "bzx84c8v2l" Type: Diode
Warning: Multiple definitions of model "bzx84c6v2l" Type: Diode
Warning: Multiple definitions of model "mbr745" Type: Diode
Warning: Multiple definitions of model "mbr735" Type: Diode
Warning: Multiple definitions of model "murs320" Type: Diode
Warning: Multiple definitions of model "murs120" Type: Diode
Warning: Multiple definitions of model "dfls220l" Type: Diode
Warning: Multiple definitions of model "cmdsh2-3" Type: Diode
Warning: Multiple definitions of model "mbrs360" Type: Diode
Warning: Multiple definitions of model "mbrs340" Type: Diode
Warning: Multiple definitions of model "mbrs140" Type: Diode
Warning: Multiple definitions of model "mbrs130l" Type: Diode
Warning: Multiple definitions of model "mbrs1100" Type: Diode
Warning: Multiple definitions of model "mbr0530l" Type: Diode
Warning: Multiple definitions of model "mbr0520l" Type: Diode
Warning: Multiple definitions of model "bat54" Type: Diode
Warning: Multiple definitions of model "1n5819" Type: Diode
Warning: Multiple definitions of model "1n5818" Type: Diode
Warning: Multiple definitions of model "1n5817" Type: Diode
Warning: Multiple definitions of model "mmsd4148" Type: Diode
Warning: Multiple definitions of model "1n4148" Type: Diode
Warning: Multiple definitions of model "1n914" Type: Diode
WARNING: Less than two connections to node N007.  This node is used by V4.
Direct Newton iteration failed to find .op point.  (Use ".option noopiter" to skip.)
Starting Gmin stepping
Gmin = 10
Gmin = 1.07374
Gmin = 0.115292
Gmin = 0.0123794
Gmin = 0.00132923
Gmin = 0.000142725
Gmin = 1.5325e-005
Gmin = 1.6455e-006
Gmin = 1.76685e-007
Gmin = 1.89714e-008
Gmin = 2.03704e-009
Gmin = 2.18725e-010
Gmin = 2.34854e-011
Gmin = 2.52173e-012
Gmin = 2.70769e-013
Gmin = 0
Gmin stepping succeeded in finding the operating point.

Ignoring empty pin current: Ix(u1:4)
Ignoring empty pin current: Ix(u1:4)
Heightened Def Con from 1.20688e-010 to 2.12069e-009
N-Period=1
Fourier components of V(out)
DC component:0.490543

Harmonic	Frequency	 Fourier 	Normalized	 Phase  	Normalized
 Number 	  [Hz]   	Component	 Component	[degree]	Phase [deg]
    1   	1.000e+03	3.944e+00	1.000e+00	  177.14°	    0.00°
    2   	2.000e+03	6.768e-01	1.716e-01	 -102.52°	 -279.66°
    3   	3.000e+03	3.699e-01	9.378e-02	 -175.08°	 -352.21°
    4   	4.000e+03	4.661e-02	1.182e-02	   74.01°	 -103.13°
    5   	5.000e+03	7.775e-02	1.971e-02	 -174.07°	 -351.20°
    6   	6.000e+03	6.202e-02	1.572e-02	   70.22°	 -106.92°
    7   	7.000e+03	2.593e-02	6.574e-03	  -19.23°	 -196.37°
    8   	8.000e+03	2.193e-02	5.561e-03	   68.52°	 -108.61°
    9   	9.000e+03	3.481e-02	8.826e-03	  -13.50°	 -190.64°
Total Harmonic Distortion: 19.789930%(19.802504%)



Date: Fri Feb 17 10:09:32 2017
Total elapsed time: 0.965 seconds.

tnom = 27
temp = 27
method = modified trap
totiter = 4623
traniter = 4207
tranpoints = 1245
accept = 1150
rejected = 96
matrix size = 29
fillins = 6
solver = Normal
Matrix Compiler1: 2.09 KB object code size  3.3/2.1/[1.3]
Matrix Compiler2: off  [1.4]/1.8/1.7


