Questionable use of curly braces in ".model sir870adp vdmos(rg=3 vto=2.9 rd=3.2m rs=1.5m rb={m} kp=100 mtriode=1.85 cgdmax=1.4n cgdmin=70p cgs=2.9n cjo=3.6n m=.4 a=.7 vj=.7 lambda=20m is=3p ksubthres=.08 mfg=siliconix vds=100 ron=5.5m qg=53.5n)"
    Error: undefined symbol in: "[m]"
Circuit: * C:\Users\franco\Desktop\Valvulas\Esquemáticos valvulares LTSPice\Hibrido\Hibridov2.asc

Warning: Multiple definitions of model "mv2201" Type: Diode
Warning: Multiple definitions of model "mur460" Type: Diode
Warning: Multiple definitions of model "w5ap-lzmz-5k8l" Type: Diode
Warning: Multiple definitions of model "1n5369b" Type: Diode
Warning: Multiple definitions of model "1n5371b" Type: Diode
Warning: Multiple definitions of model "1n5375b" Type: Diode
Warning: Multiple definitions of model "1n5378b" Type: Diode
Warning: Multiple definitions of model "1n5373b" Type: Diode
Warning: Multiple definitions of model "pt-121-b" Type: Diode
Warning: Multiple definitions of model "ss24" Type: Diode
Warning: Multiple definitions of model "es1d" Type: Diode
Warning: Multiple definitions of model "pds5100" Type: Diode
Warning: Multiple definitions of model "zlls2000" Type: Diode
Warning: Multiple definitions of model "zlls1000" Type: Diode
Warning: Multiple definitions of model "10mq060n" Type: Diode
Warning: Multiple definitions of model "b560c" Type: Diode
Warning: Multiple definitions of model "b550c" Type: Diode
Warning: Multiple definitions of model "b540c" Type: Diode
Warning: Multiple definitions of model "b530c" Type: Diode
Warning: Multiple definitions of model "b520c" Type: Diode
Warning: Multiple definitions of model "pds760" Type: Diode
Warning: Multiple definitions of model "dflz33" Type: Diode
Warning: Multiple definitions of model "gsd2004w-v" Type: Diode
Warning: Multiple definitions of model "prll5817" Type: Diode
Warning: Multiple definitions of model "pmeg6010aed" Type: Diode
Warning: Multiple definitions of model "pmeg2005eb" Type: Diode
Warning: Multiple definitions of model "pmeg2010aeb" Type: Diode
Warning: Multiple definitions of model "pmeg4005aea" Type: Diode
Warning: Multiple definitions of model "pmeg3005aea" Type: Diode
Warning: Multiple definitions of model "pmeg2005aea" Type: Diode
Warning: Multiple definitions of model "pmeg4010bea" Type: Diode
Warning: Multiple definitions of model "pmeg3010bea" Type: Diode
Warning: Multiple definitions of model "pmeg2010bea" Type: Diode
Warning: Multiple definitions of model "pmeg2010ea" Type: Diode
Warning: Multiple definitions of model "pmeg2020aea" Type: Diode
Warning: Multiple definitions of model "nssws108t" Type: Diode
Warning: Multiple definitions of model "nssw008ct-p1" Type: Diode
Warning: Multiple definitions of model "aot-2015" Type: Diode
Warning: Multiple definitions of model "lxk2-pw14" Type: Diode
Warning: Multiple definitions of model "lxhl-bw02" Type: Diode
Warning: Multiple definitions of model "qtlp690c" Type: Diode
Warning: Multiple definitions of model "nscw100" Type: Diode
Warning: Multiple definitions of model "nspw500bs" Type: Diode
Warning: Multiple definitions of model "upsc600" Type: Diode
Warning: Multiple definitions of model "30bq060" Type: Diode
Warning: Multiple definitions of model "mbr20100ct" Type: Diode
Warning: Multiple definitions of model "mbrb2545ct" Type: Diode
Warning: Multiple definitions of model "mur460" Type: Diode
Warning: Multiple definitions of model "mbr0540" Type: Diode
Warning: Multiple definitions of model "mv2201" Type: Diode
Warning: Multiple definitions of model "1n750" Type: Diode
Warning: Multiple definitions of model "rb10l-40" Type: Diode
Warning: Multiple definitions of model "bzx84c15l" Type: Diode
Warning: Multiple definitions of model "bzx84c12l" Type: Diode
Warning: Multiple definitions of model "bzx84c10l" Type: Diode
Warning: Multiple definitions of model "bzx84c8v2l" Type: Diode
Warning: Multiple definitions of model "bzx84c6v2l" Type: Diode
Warning: Multiple definitions of model "mbr745" Type: Diode
Warning: Multiple definitions of model "mbr735" Type: Diode
Warning: Multiple definitions of model "murs320" Type: Diode
Warning: Multiple definitions of model "murs120" Type: Diode
Warning: Multiple definitions of model "dfls220l" Type: Diode
Warning: Multiple definitions of model "cmdsh2-3" Type: Diode
Warning: Multiple definitions of model "mbrs360" Type: Diode
Warning: Multiple definitions of model "mbrs340" Type: Diode
Warning: Multiple definitions of model "mbrs140" Type: Diode
Warning: Multiple definitions of model "mbrs130l" Type: Diode
Warning: Multiple definitions of model "mbrs1100" Type: Diode
Warning: Multiple definitions of model "mbr0530l" Type: Diode
Warning: Multiple definitions of model "mbr0520l" Type: Diode
Warning: Multiple definitions of model "bat54" Type: Diode
Warning: Multiple definitions of model "1n5819" Type: Diode
Warning: Multiple definitions of model "1n5818" Type: Diode
Warning: Multiple definitions of model "1n5817" Type: Diode
Warning: Multiple definitions of model "mmsd4148" Type: Diode
Warning: Multiple definitions of model "1n4148" Type: Diode
Warning: Multiple definitions of model "1n914" Type: Diode
WARNING: Less than two connections to node N006.  This node is used by V4.
Direct Newton iteration failed to find .op point.  (Use ".option noopiter" to skip.)
Starting Gmin stepping
Gmin = 10
Gmin = 1.07374
Gmin = 0.115292
Gmin = 0.0123794
Gmin = 0.00132923
Gmin = 0.000142725
Gmin = 1.5325e-005
Gmin = 1.6455e-006
Gmin = 1.76685e-007
Gmin = 1.89714e-008
Gmin = 2.03704e-009
Gmin = 2.18725e-010
Gmin = 2.34854e-011
Gmin = 2.52173e-012
Gmin = 2.70769e-013
Gmin = 0
Gmin stepping succeeded in finding the operating point.

Ignoring empty pin current: Ix(u1:4)
Ignoring empty pin current: Ix(u1:4)
Heightened Def Con from 2.04539e-010 to 2.20454e-009
N-Period=1
Fourier components of V(out)
DC component:0.317531

Harmonic	Frequency	 Fourier 	Normalized	 Phase  	Normalized
 Number 	  [Hz]   	Component	 Component	[degree]	Phase [deg]
    1   	1.000e+03	3.722e+00	1.000e+00	  176.19°	    0.00°
    2   	2.000e+03	4.570e-01	1.228e-01	 -109.72°	 -285.92°
    3   	3.000e+03	2.952e-01	7.931e-02	 -178.85°	 -355.05°
    4   	4.000e+03	1.128e-01	3.031e-02	   96.23°	  -79.96°
    5   	5.000e+03	2.534e-02	6.808e-03	 -150.10°	 -326.29°
    6   	6.000e+03	4.452e-02	1.196e-02	   90.56°	  -85.63°
    7   	7.000e+03	2.898e-02	7.785e-03	  -24.09°	 -200.29°
    8   	8.000e+03	1.422e-02	3.820e-03	 -118.09°	 -294.28°
    9   	9.000e+03	5.738e-03	1.541e-03	  -25.66°	 -201.85°
Total Harmonic Distortion: 15.016432%(15.029254%)



Date: Fri Feb 17 10:21:22 2017
Total elapsed time: 0.896 seconds.

tnom = 27
temp = 27
method = modified trap
totiter = 3901
traniter = 3483
tranpoints = 1067
accept = 1052
rejected = 16
matrix size = 29
fillins = 6
solver = Normal
Matrix Compiler1: 2.09 KB object code size  2.6/1.4/[1.1]
Matrix Compiler2: off  [1.2]/1.6/1.6


